Version 4
SHEET 1 1624 680
WIRE 192 48 -224 48
WIRE 192 80 192 48
WIRE -224 96 -224 48
WIRE -192 96 -224 96
WIRE -16 96 -112 96
WIRE 144 96 -16 96
WIRE -16 128 -16 96
WIRE -224 176 -224 96
WIRE -224 208 -224 176
WIRE 464 224 320 224
WIRE 592 224 528 224
WIRE 848 224 848 160
WIRE -16 256 -16 208
WIRE 96 256 96 224
WIRE 592 256 592 224
WIRE 192 272 192 176
WIRE -64 336 -128 336
WIRE 96 352 96 320
WIRE 144 352 96 352
WIRE 848 352 848 304
WIRE -224 384 -224 288
WIRE -16 384 -16 352
WIRE -16 384 -224 384
WIRE 192 384 192 368
WIRE 192 384 -16 384
WIRE 592 384 592 336
FLAG -224 384 0
FLAG 848 352 0
FLAG 848 160 GateA
FLAG 96 224 GateA
FLAG -224 176 Vdd
FLAG 320 224 GateA
FLAG 592 384 0
FLAG -128 336 GateA
SYMBOL pmos 144 176 M180
SYMATTR InstName M1
SYMATTR Value AO6407
SYMBOL nmos 144 272 R0
SYMATTR InstName M4
SYMATTR Value AO6408
SYMBOL voltage -224 192 R0
WINDOW 123 0 0 Left 0
WINDOW 39 0 0 Left 0
SYMATTR InstName V1
SYMATTR Value 14
SYMBOL res -96 80 R90
WINDOW 0 0 56 VBottom 2
WINDOW 3 32 56 VTop 2
SYMATTR InstName R1
SYMATTR Value 100000
SYMBOL voltage 848 208 R0
WINDOW 123 0 0 Left 0
WINDOW 39 0 0 Left 0
SYMATTR InstName V3
SYMATTR Value PULSE(0 5 1 1e-9 1e-9 5)
SYMBOL res -32 112 R0
SYMATTR InstName R3
SYMATTR Value 50000
SYMBOL Digital\\inv 160 256 R90
SYMATTR InstName A1
SYMATTR SpiceLine Vhigh=5
SYMBOL res 576 240 R0
SYMATTR InstName R2
SYMATTR Value 100000
SYMBOL nmos -64 256 R0
SYMATTR InstName M2
SYMATTR Value AO6408
TEXT -384 432 Left 2 !.tran 10 startup
