Version 4
SHEET 1 1624 680
WIRE -112 48 -224 48
WIRE 64 48 -32 48
WIRE 192 48 64 48
WIRE 384 48 192 48
WIRE 496 48 384 48
WIRE 384 64 384 48
WIRE 448 64 432 64
WIRE 192 80 192 48
WIRE 144 96 128 96
WIRE 64 144 64 128
WIRE 96 144 64 144
WIRE 128 144 128 96
WIRE 128 144 96 144
WIRE 96 160 96 144
WIRE -224 176 -224 48
WIRE 256 176 192 176
WIRE 384 176 384 144
WIRE 384 176 336 176
WIRE 432 176 432 64
WIRE 432 176 384 176
WIRE -224 208 -224 176
WIRE 192 224 192 176
WIRE 288 224 192 224
WIRE 496 224 496 144
WIRE 496 224 368 224
WIRE 848 224 848 160
WIRE 1168 224 1168 176
WIRE 96 256 96 240
WIRE 496 256 496 224
WIRE 496 256 96 256
WIRE 192 272 192 224
WIRE 496 288 496 256
WIRE 144 352 112 352
WIRE 848 352 848 304
WIRE 1168 352 1168 304
WIRE -224 368 -224 288
WIRE 48 368 -224 368
WIRE 192 368 48 368
WIRE 448 368 400 368
WIRE -224 384 -224 368
WIRE 48 384 48 368
WIRE 496 384 48 384
FLAG -224 384 0
FLAG 1168 352 0
FLAG 1168 176 GateB
FLAG 400 368 GateB
FLAG 848 352 0
FLAG 848 160 GateA
FLAG 112 352 GateA
FLAG -224 176 Vdd
FLAG -656 368 0
FLAG -640 144 0
FLAG -640 80 Vdd
FLAG -656 304 Vdd
FLAG -672 96 GateA
FLAG -688 320 GateB
FLAG -672 128 TopA
FLAG -688 352 TopB
FLAG 64 144 TopA
FLAG 432 176 TopB
SYMBOL pmos 144 176 M180
SYMATTR InstName M1
SYMATTR Value AO6407
SYMBOL pmos 448 144 M180
SYMATTR InstName M2
SYMATTR Value AO6407
SYMBOL nmos 144 272 R0
SYMATTR InstName M4
SYMATTR Value AO6408
SYMBOL nmos 448 288 R0
SYMATTR InstName M6
SYMATTR Value AO6408
SYMBOL voltage -224 192 R0
WINDOW 123 0 0 Left 0
WINDOW 39 0 0 Left 0
SYMATTR InstName V1
SYMATTR Value 14
SYMBOL voltage 1168 208 R0
WINDOW 123 0 0 Left 0
WINDOW 39 0 0 Left 0
SYMATTR InstName V2
SYMATTR Value PULSE(0 5 5 0.000004 0.000011 4.5)
SYMBOL res 48 32 R0
SYMATTR InstName R1
SYMATTR Value 100000
SYMBOL res 368 48 R0
WINDOW 3 21 84 Left 2
SYMATTR InstName R2
SYMATTR Value 100000
SYMBOL res 384 208 R90
WINDOW 0 0 56 VBottom 2
WINDOW 3 32 56 VTop 2
SYMATTR InstName R4
SYMATTR Value 1.5
SYMBOL voltage 848 208 R0
WINDOW 123 0 0 Left 0
WINDOW 39 0 0 Left 0
SYMATTR InstName V3
SYMATTR Value PULSE(0 5 0.0001 0.000004 0.000011 5 10)
SYMBOL res 80 144 R0
SYMATTR InstName R3
SYMATTR Value 100
SYMBOL res 352 160 R90
WINDOW 0 0 56 VBottom 2
WINDOW 3 32 56 VTop 2
SYMATTR InstName R5
SYMATTR Value 100
SYMBOL ind -128 64 R270
WINDOW 0 32 56 VTop 2
WINDOW 3 5 56 VBottom 2
SYMATTR InstName L1
SYMATTR Value 1n
SYMBOL Comparators\\LTC6752 -640 48 R0
SYMATTR InstName U1
SYMBOL Comparators\\LTC6752 -656 272 R0
SYMATTR InstName U2
TEXT -384 432 Left 2 !.tran 10
