Version 4
SHEET 1 1624 680
WIRE -560 0 -608 0
WIRE -560 48 -560 0
WIRE -144 48 -224 48
WIRE -80 48 -144 48
WIRE 64 48 16 48
WIRE 192 48 64 48
WIRE 384 48 192 48
WIRE 496 48 384 48
WIRE -608 64 -608 0
WIRE 384 64 384 48
WIRE 448 64 432 64
WIRE -144 80 -144 48
WIRE 192 80 192 48
WIRE 144 96 128 96
WIRE -64 128 -64 96
WIRE -64 128 -96 128
WIRE -64 144 -64 128
WIRE 64 144 64 128
WIRE 96 144 64 144
WIRE 128 144 128 96
WIRE 128 144 96 144
WIRE 96 160 96 144
WIRE -960 176 -960 160
WIRE -864 176 -960 176
WIRE -608 176 -608 144
WIRE -224 176 -224 48
WIRE 256 176 192 176
WIRE 384 176 384 144
WIRE 384 176 336 176
WIRE 432 176 432 64
WIRE 432 176 384 176
WIRE -864 192 -976 192
WIRE -656 192 -800 192
WIRE -144 192 -144 160
WIRE -96 192 -96 128
WIRE -96 192 -144 192
WIRE 496 192 496 144
WIRE 672 192 496 192
WIRE -224 208 -224 176
WIRE -976 224 -976 192
WIRE 192 224 192 176
WIRE 288 224 192 224
WIRE 496 224 496 192
WIRE 496 224 368 224
WIRE 848 224 848 160
WIRE 1168 224 1168 176
WIRE -64 256 -64 224
WIRE 96 256 96 240
WIRE 496 256 496 224
WIRE 496 256 96 256
WIRE 192 272 192 224
WIRE -608 288 -608 256
WIRE -544 288 -608 288
WIRE 496 288 496 256
WIRE -608 320 -608 288
WIRE -112 336 -160 336
WIRE 672 336 672 192
WIRE 848 336 848 304
WIRE 848 336 672 336
WIRE 144 352 112 352
WIRE 848 352 848 336
WIRE 1168 352 1168 304
WIRE 192 368 48 368
WIRE 448 368 400 368
WIRE -224 384 -224 288
WIRE -64 384 -64 352
WIRE -64 384 -224 384
WIRE 48 384 48 368
WIRE 48 384 -64 384
WIRE 496 384 48 384
WIRE -656 416 -656 240
WIRE -608 416 -608 400
WIRE -608 416 -656 416
WIRE -608 448 -608 416
FLAG -224 384 0
FLAG 1168 352 0
FLAG 1168 176 GateB
FLAG 400 368 GateB
FLAG 848 352 0
FLAG 848 160 GateA
FLAG 112 352 GateA
FLAG -224 176 Vdd
FLAG 64 144 TopA
FLAG 432 176 TopB
FLAG -960 160 GateA
FLAG -976 224 GateB
FLAG -544 288 EN
FLAG -160 336 EN
FLAG -608 448 0
FLAG -560 48 0
SYMBOL pmos 144 176 M180
SYMATTR InstName M1
SYMATTR Value AO6407
SYMBOL pmos 448 144 M180
SYMATTR InstName M2
SYMATTR Value AO6407
SYMBOL nmos 144 272 R0
SYMATTR InstName M4
SYMATTR Value AO6408
SYMBOL nmos 448 288 R0
SYMATTR InstName M6
SYMATTR Value AO6408
SYMBOL voltage -224 192 R0
WINDOW 123 0 0 Left 0
WINDOW 39 0 0 Left 0
SYMATTR InstName V1
SYMATTR Value 14
SYMBOL voltage 1168 208 R0
WINDOW 123 0 0 Left 0
WINDOW 39 0 0 Left 0
SYMATTR InstName V2
SYMATTR Value 0
SYMBOL res 48 32 R0
SYMATTR InstName R1
SYMATTR Value 100000
SYMBOL res 368 48 R0
WINDOW 3 21 84 Left 2
SYMATTR InstName R2
SYMATTR Value 100000
SYMBOL res 384 208 R90
WINDOW 0 0 56 VBottom 2
WINDOW 3 32 56 VTop 2
SYMATTR InstName R4
SYMATTR Value 1.5
SYMBOL voltage 848 208 R0
WINDOW 123 0 0 Left 0
WINDOW 39 0 0 Left 0
SYMATTR InstName V3
SYMATTR Value 0
SYMBOL res 80 144 R0
SYMATTR InstName R3
SYMATTR Value 100
SYMBOL res 352 160 R90
WINDOW 0 0 56 VBottom 2
WINDOW 3 32 56 VTop 2
SYMATTR InstName R5
SYMATTR Value 100
SYMBOL Digital\\xor -816 144 R0
SYMATTR InstName A1
SYMBOL pmos 16 96 M270
SYMATTR InstName M3
SYMATTR Value AO6407
SYMBOL sw -608 272 M180
SYMATTR InstName S1
SYMBOL nmos -112 256 R0
SYMATTR InstName M5
SYMBOL voltage -608 160 R180
WINDOW 0 24 96 Left 2
WINDOW 3 24 16 Left 2
WINDOW 123 0 0 Left 0
WINDOW 39 0 0 Left 0
SYMATTR InstName V4
SYMATTR Value 5
SYMBOL res -160 64 R0
SYMATTR InstName R6
SYMATTR Value 100000
SYMBOL res -80 128 R0
SYMATTR InstName R7
SYMATTR Value 100
SYMBOL res -624 304 R0
SYMATTR InstName R8
SYMATTR Value 1000
TEXT -384 432 Left 2 !.tran 10 startup
